!!>>>>>>>>>>>>>>>>>>>>>>>>>>>>>>>>>>>>>>>>>>>>>>>>>>>>>>>>>>>>>>>>>>>>>>
!! NEMO/OCE  Configuration namelist : overwrite default values defined in SHARED/namelist_ref
!!
!!    NANUK4 (1/4 degree!) with SI3
!!
!!>>>>>>>>>>>>>>>>>>>>>>>>>>>>>>>>>>>>>>>>>>>>>>>>>>>>>>>>>>>>>>>>>>>>>>
!! NEMO/OCE  :  1 - Domain & run manager (namrun, namcfg, namdom, namtsd, namcrs, namc1d, namc1d_uvd)
!! namelists    2 - Surface boundary (namsbc, namsbc_flx, namsbc_blk, namsbc_cpl,
!!                                    namsbc_sas, namtra_qsr, namsbc_rnf,
!!                                    namisf, namsbc_apr,
!!                                    namsbc_ssr, namsbc_wave, namberg)
!!              3 - lateral boundary (namlbc, namagrif, nambdy, nambdy_tide)
!!              4 - top/bot boundary (namdrg, namdrg_top, namdrg_bot, nambbc, nambbl)
!!              5 - Tracer           (nameos, namtra_adv, namtra_ldf, namtra_eiv, namtra_dmp)
!!              6 - dynamics         (namdyn_adv, namdyn_vor, namdyn_hpg, namdyn_spg, namdyn_ldf)
!!              7 - Vertical physics (namzdf, namzdf_ric, namzdf_tke, namzdf_gls, namzdf_iwm)
!!              8 - diagnostics      (namnc4, namtrd, namspr, namflo, namhsb)
!!              9 - Obs & Assim      (namobs, nam_asminc)
!!             10 - miscellaneous    (nammpp, namctl, namsto)
!!>>>>>>>>>>>>>>>>>>>>>>>>>>>>>>>>>>>>>>>>>>>>>>>>>>>>>>>>>>>>>>>>>>>>>>

!!======================================================================
!!              ***  Domain & Run management namelists  ***           !!
!!                                                                    !!
!!   namrun       parameters of the run
!!   namdom       space and time domain
!!   namcfg       parameters of the configuration                       (default: user defined GYRE)
!!   namwad       Wetting and drying                                    (default: OFF)
!!   namtsd       data: temperature & salinity                          (default: OFF)
!!   namcrs       coarsened grid (for outputs and/or TOP)               (ln_crs =T)
!!   namc1d       1D configuration options                              (ln_c1d =T)
!!   namc1d_dyndmp 1D newtonian damping applied on currents             (ln_c1d =T)
!!   namc1d_uvd   1D data (currents)                                    (ln_c1d =T)
!!======================================================================
!
!-----------------------------------------------------------------------
&namrun        !   parameters of the run
!-----------------------------------------------------------------------
   cn_exp      =  'NANUK4_ICE_ABL-BLKEVP016'  !  experience name
   nn_it000    =    1201   !  first time step
   nn_itend    =    1320   !  last  time step (std 5840)
   nn_date0    =    20130111   !  date at nit_0000 (format yyyymmdd) used if ln_rstart=F or (ln_rstart=T and nn_rstctl=0 or 1)
   nn_leapy    =       1   !  Leap year calendar (1) or not (0)
   ln_rstart   =  .true.   !  start from rest (F) or from a restart file (T)
      ln_1st_euler = .false.  !  =T force a start with forward time step (ln_rstart=T)
      nn_rstctl   = 2      !  restart control ==> activated only if ln_rstart=T
      !                          !    = 0 nn_date0 read in namelist ; nn_it000 : read in namelist
      !                          !    = 1 nn_date0 read in namelist ; nn_it000 : check consistancy between namelist and restart
      !                          !    = 2 nn_date0 read in restart  ; nn_it000 : check consistancy between namelist and restart
      cn_ocerst_in    = 'NANUK4_ICE_ABL-BLKEVP016_00001200_restart_oce'    !  suffix of ocean restart name (input)
      cn_ocerst_indir = '/gpfsstore/rech/cli/regi915/NEMO//NANUK4/NANUK4_ICE_ABL-BLKEVP016-R/00001200'   !  directory from which to read input ocean restarts
      cn_ocerst_out   = 'restart_oce'       !  suffix of ocean restart name (output)
      cn_ocerst_outdir = '/gpfsstore/rech/cli/regi915/NEMO//NANUK4/NANUK4_ICE_ABL-BLKEVP016-R/00001320' !  directory in which to write output ocean restarts
   nn_istate   =       1   !  output the initial state (1) or not (0)
   ln_rst_list = .false.   !  output restarts at list of times using nn_stocklist (T) or at set frequency with nn_stock (F)
   nn_stock    = 120  !  frequency of creation of a restart file (modulo referenced to 1)
   nn_write    = 120   !  frequency of write in the output file   (modulo referenced to nn_it000)
   ln_mskland  = .false.   !  mask land points in NetCDF outputs
   ln_clobber  = .true.    !  clobber (overwrite) an existing file
/
!-----------------------------------------------------------------------
&namdom        !   time and space domain
!-----------------------------------------------------------------------
   ln_linssh   = .false.   !  =T  linear free surface  ==>>  model level are fixed in time
   rn_Dt      = 720.      !  time step for the dynamics and tracer
   ln_meshmask = .false.   !  =T create a mesh file
/
!-----------------------------------------------------------------------
&namcfg        !   parameters of the configuration                      (default: use namusr_def in namelist_cfg)
!-----------------------------------------------------------------------
   ln_read_cfg = .true.    !  (=T) read the domain configuration file
      cn_domcfg = 'domain_cfg_L31_4.2.1.nc'  ! domain configuration filename
/
!-----------------------------------------------------------------------
&namtsd        !    Temperature & Salinity Data  (init/dmp)             (default: OFF)
!-----------------------------------------------------------------------
   !                       ! =T  read T-S fields for:
   ln_tsd_init = .false.    !  ocean initialisation
   ln_tsd_dmp  = .false.         !  T-S restoring   (see namtra_dmp)

   cn_dir      = './'      !  root directory for the T-S data location
   !___________!__________________!___________________!_____________!_____________!________!___________!__________________!__________!_______________!
   !           !  file name       ! frequency (hours) !  variable   ! time interp.!  clim  ! 'yearly'/ ! weights filename ! rotation ! land/sea mask !
   !           !                  !  (if <0  months)  !    name     !   (logical) !  (T/F) ! 'monthly' !                  ! pairing  !    filename   !
   sn_tem = 'votemper_GLORYS2V4-NANUK4_L31_20130111',    -12. ,'votemper',   .FALSE.   , .TRUE. , 'yearly'  ,    ''    ,    ''    ,    ''
   sn_sal = 'vosaline_GLORYS2V4-NANUK4_L31_20130111',    -12. ,'vosaline',   .FALSE.   , .TRUE. , 'yearly'  ,    ''    ,    ''    ,    ''
/

!!======================================================================
!!            ***  Surface Boundary Condition namelists  ***          !!
!!                                                                    !!
!!   namsbc          surface boundary condition manager                 (default: NO selection)
!!   namsbc_flx      flux               formulation                     (ln_flx     =T)
!!   namsbc_blk      Bulk formulae formulation                          (ln_blk     =T)
!!   namsbc_cpl      CouPLed            formulation                     ("key_oasis3" )
!!   namsbc_sas      Stand-Alone Surface module                         (SAS_SRC  only)
!!   namsbc_iif      Ice-IF: use observed ice cover                     (nn_ice = 1   )
!!   namtra_qsr      penetrative solar radiation                        (ln_traqsr  =T)
!!   namsbc_ssr      sea surface restoring term (for T and/or S)        (ln_ssr     =T)
!!   namsbc_rnf      river runoffs                                      (ln_rnf     =T)
!!   namsbc_apr      Atmospheric Pressure                               (ln_apr_dyn =T)
!!   namsbc_wave     external fields from wave model                    (ln_wave    =T)
!!   namberg         iceberg floats                                     (ln_icebergs=T)
!!   namsbc_fwb      freshwater-budget adjustment                       (nn_fwb > 0)
!!======================================================================
!
!-----------------------------------------------------------------------
&namsbc        !   Surface Boundary Condition manager                   (default: NO selection)
!-----------------------------------------------------------------------
   nn_fsbc     = 1    !  frequency of SBC module call
      !                    !  (control sea-ice & iceberg model call)
                     ! Type of air-sea fluxes
   ln_blk      = .true.    !  Bulk formulation                          (T => fill namsbc_blk )
   ln_abl      = .false.   !  ABL  formulation                          (T => fill namsbc_abl )
                     ! Sea-ice :
   nn_ice      = 2         !  =2 or 3 automatically for SI3 or CICE    ("key_si3" or "key_cice")
                           !          except in AGRIF zoom where it has to be specified
                     ! Misc. options of sbc :
   ln_traqsr   = .true.    !  Light penetration in the ocean            (T => fill namtra_qsr)
   ln_dm2dc    = .false.   !#lolo  daily mean to diurnal cycle on short wave
   ln_ssr      = .false.   !#lolo  Sea Surface Restoring on T and/or S       (T => fill namsbc_ssr)
   nn_fwb      = 0         !  FreshWater Budget: =0 unchecked
      !                    !     =1 global mean of e-p-r set to zero at each time step
      !                    !     =2 annual global mean of e-p-r set to zero
   ln_rnf      = .true.    !  runoffs                                   (T => fill namsbc_rnf)
   ln_apr_dyn  = .true.    !#lolo  Patm gradient added in ocean & ice Eqs.   (T => fill namsbc_apr )
   ln_wave     = .false.   !  Activate coupling with wave  (T => fill namsbc_wave)
   nn_lsm      = 0         !  =0 land/sea mask for input fields is not applied (keep empty land/sea mask filename field) ,
                           !  =1:n number of iterations of land/sea mask application for input fields (fill land/sea mask filename field)
/
!-----------------------------------------------------------------------
&namsbc_blk    !   namsbc_blk  generic Bulk formula          (ln_blk =T)
!-----------------------------------------------------------------------
   !                    !  bulk algorithm :
   ln_NCAR      = .false.     ! "NCAR"      algorithm   (Large and Yeager 2008)
   ln_COARE_3p0 = .false.    ! "COARE 3.0" algorithm   (Fairall et al. 2003)
   ln_COARE_3p6 = .false.    ! "COARE 3.6" algorithm   (Edson et al. 2013)
   ln_ECMWF     = .true.     ! "ECMWF"     algorithm   (IFS cycle 45r1)
   ln_ANDREAS   = .false.    ! "ANDREAS"   algorithm   (Andreas et al. 2015)
      rn_zqt       = 10.     !  Air temperature & humidity reference height (m)
      rn_zu        = 10.     !  Wind vector reference height (m)
      nn_iter_algo = 5       !  Number of iterations in bulk param. algo ("stable ABL + weak wind" requires more)
      ln_skin_cs   = .false. !  use the cool-skin parameterization  => use at least nn_iter_algo > 10
      ln_skin_wl   = .false. !  use the warm-layer parameterization => use at least nn_iter_algo > 10
   !
   rn_pfac    = 1.          !  multipl. factor for precipitation (total & snow)
   rn_efac    = 1.          !  multipl. factor for evaporation (0. or 1.)
   !
   ln_crt_fbk = .false.     !  Add surface current feedback to the wind stress (Renault et al. 2020, doi: 10.1029/2019MS001715)
         rn_stau_a = -2.9e-3   !     Alpha from eq. 10: Stau = Alpha * Wnd + Beta
         rn_stau_b =  8.0e-3   !     Beta
   !
   ln_humi_sph = .true. !  humidity "sn_humi" is specific humidity  [kg/kg]
   ln_humi_dpt = .false.  !  humidity "sn_humi" is dew-point temperature [K]
   ln_humi_rlh = .false. !  humidity "sn_humi" is relative humidity     [%]
   ln_tair_pot = .false. !  air temperature read in "sn_tair" is already POTENTIAL TEMPERATURE, NOT ABSOLUTE (ECMWF => ln_tair_pot=.false.)
   !!
   !! Bulk transfer coefficients over sea-ice: (relevant IF: nn_ice >=1 )
   !! LOLO: GUIBOU:  1.6 x 10-3 !!!
   ln_Cx_ice_cst = .true.     ! use constant ice-air bulk transfer coefficients (value given below)
      rn_Cd_i  = 1.2e-3       ! sea-ice drag coefficient
      rn_Ce_i  = 1.4e-3       !    "    sublimation coefficient
      rn_Ch_i  = 1.4e-3       !    "    sensible heat flux coefficient
   ln_Cx_ice_AN05  = .false.  !  (Andreas et al. 2005)
   ln_Cx_ice_LU12  = .false.  !  (Lupkes et al. 2012)
   ln_Cx_ice_LG15  = .false.  !  (Lupkes & Gryanik 2015)
   !
   cn_dir      = './FATM/' !  root directory for the bulk data location
   !___________!____________!___________!__________!_____________!________!___________!_____________________________________________________________!__________!_______________!
   !           !  file name ! freq. (h) ! variable ! time interp.!  clim  ! 'yearly'/ !       weights filename                                      ! rotation ! land/sea mask !
   !           !            !           !   name   !   (logical) !  (T/F) ! 'monthly' !                                                             ! pairing  !    filename   !
   sn_wndi     = 'uwnd_drwnlnd_ERAI_L50Z10_GLOF128R_ana06h'       ,    6.        , 'uwnd',   .false.   , .false. , 'yearly'  , 'weights_bicubic_ERAi-NANUK4'  , 'Uwnd'   , ''
   sn_wndj     = 'vwnd_drwnlnd_ERAI_L50Z10_GLOF128R_ana06h'       ,    6.        , 'vwnd',   .false.   , .false. , 'yearly'  , 'weights_bicubic_ERAi-NANUK4'  , 'Vwnd'   , ''
   sn_qsr  = 'ERA5_msdwswrf', 1., 'msdwswrf',    .false.  , .false. , 'yearly' , 'weight_bilinear_ERA5_Arctic-box_1440x264-NANUK4.nc' , ''       , ''
   sn_qlw  = 'ERA5_msdwlwrf', 1., 'msdwlwrf',    .false.  , .false. , 'yearly' , 'weight_bilinear_ERA5_Arctic-box_1440x264-NANUK4.nc' , ''       , ''
   sn_tair     = 'tpot_drwnlnd_ERAI_L50Z10_GLOF128R_ana06h'       ,    6.        , 'tair',   .false.   , .false. , 'yearly'  , 'weights_bilinear_ERAi-NANUK4' , ''       , ''
   sn_humi     = 'humi_drwnlnd_ERAI_L50Z10_GLOF128R_ana06h'       ,    6.        , 'humi',   .false.   , .false. , 'yearly'  , 'weights_bilinear_ERAi-NANUK4' , ''       , ''
   sn_prec = 'ERA5_mtpr',     1.,  'mtpr'   ,    .false.  , .false. , 'yearly' , 'weight_bilinear_ERA5_Arctic-box_1440x264-NANUK4.nc' , ''       , ''
   sn_snow = 'ERA5_msr',      1.,  'msr'    ,    .false.  , .false. , 'yearly' , 'weight_bilinear_ERA5_Arctic-box_1440x264-NANUK4.nc' , ''       , ''
   sn_slp  = 'ERA5_msl',      1.,  'msl'    ,    .true.   , .false. , 'yearly' , 'weight_bilinear_ERA5_Arctic-box_1440x264-NANUK4.nc' , ''       , ''
/
!-----------------------------------------------------------------------
&namsbc_abl    !   Atmospheric Boundary Layer formulation           (ln_abl = T)
!-----------------------------------------------------------------------
   cn_dir           = './'      !  root directory for the location of the ABL grid file
   cn_dom           = 'dom_cfg_abl_L50Z10'

   cn_ablrst_in     = "restart_abl"   !  suffix of abl restart name (input)
   cn_ablrst_out    = "restart_abl"   !  suffix of abl restart name (output)
   cn_ablrst_indir  = "."             !  directory to read   input abl restarts
   cn_ablrst_outdir = "."             !  directory to write output abl restarts

   ln_rstart_abl  = .false.
   ln_hpgls_frc   = .false.
   ln_geos_winds  = .false.
   ln_smth_pblh   = .false.
   nn_dyn_restore = 2         ! restoring option for dynamical ABL variables: = 0 no restoring
                              !                                               = 1 equatorial restoring
                              !                                               = 2 global restoring
   rn_ldyn_min   =  0.2       ! dynamics nudging magnitude inside the ABL [hour] (~3 rn_Dt)
   rn_ldyn_max   =  0.2       ! dynamics nudging magnitude above  the ABL [hour] (~1 rn_Dt)
   rn_ltra_min   =  0.2       ! tracers  nudging magnitude inside the ABL [hour] (~3 rn_Dt)
   rn_ltra_max   =  0.2       ! tracers  nudging magnitude above  the ABL [hour] (~1 rn_Dt)
   nn_amxl       =  0         ! mixing length: = 0 Deardorff 80 length-scale
                              !                = 1 length-scale based on the distance to the PBL height
                              !                = 2 Bougeault & Lacarrere 89 length-scale
                              ! CBR00  ! CCH02  ! MesoNH !
   rn_Cm          = 0.0667    ! 0.0667 ! 0.1260 ! 0.1260 !
   rn_Ct          = 0.1667    ! 0.1667 ! 0.1430 ! 0.1430 !
   rn_Ce          = 0.40      ! 0.40   ! 0.34   ! 0.40   !
   rn_Ceps        = 0.700     ! 0.700  ! 0.845  ! 0.850  !
   rn_Ric         = 0.139     ! 0.139  ! 0.143  !   ?    ! Critical Richardson number (to compute PBL height and diffusivities)
   rn_Rod         = 0.15      ! c0 in RMCA17 mixing length formulation (not yet implemented)

   rn_vfac        = 0         ! multiplicative factor for ocean/ice velocity
                              ! calculate the wind stress (0.=absolute or 1.=relative winds)
/
!-----------------------------------------------------------------------
&namsbc_sas    !   Stand-Alone Surface module: ocean data               (SAS_SRC  only)
!-----------------------------------------------------------------------
/
!-----------------------------------------------------------------------
&namtra_qsr    !   penetrative solar radiation                          (ln_traqsr =T)
!-----------------------------------------------------------------------
   !                       ! type of penetration                        (default: NO selection)
   ln_qsr_rgb  = .true.       !  RGB light penetration (Red-Green-Blue)
   !
   nn_chldta   =      0       !  RGB : Chl data (=1) or cst value (=0)

   cn_dir      = './'      !  root directory for the chlorophyl data location
   !___________!_________________________!___________________!___________!_____________!________!___________!__________________!__________!_______________!
   !           !  file name              ! frequency (hours) ! variable  ! time interp.!  clim  ! 'yearly'/ ! weights filename ! rotation ! land/sea mask !
   !           !                         !  (if <0  months)  !   name    !   (logical) !  (T/F) ! 'monthly' !                  ! pairing  !    filename   !
   sn_chl      ='CHLA_ESACCI_BIOMER4V1R1',        -1.        , 'CHLA'    ,   .true.    , .true. , 'yearly'  , ''               , ''       , ''
/
!-----------------------------------------------------------------------
&namsbc_ssr    !   surface boundary condition : sea surface restoring   (ln_ssr =T)
!-----------------------------------------------------------------------
/
!-----------------------------------------------------------------------
&namsbc_rnf    !   runoffs                                              (ln_rnf =T)
!-----------------------------------------------------------------------
   ln_rnf_mouth = .true.    !  specific treatment at rivers mouths
      rn_hrnf     =  15.e0    !  depth over which enhanced vertical mixing is used    (ln_rnf_mouth=T)
      rn_avt_rnf  =   2.e-3   !  value of the additional vertical mixing coef. [m2/s] (ln_rnf_mouth=T)
   rn_rfact    =   1.e0    !  multiplicative factor for runoff

   cn_dir      = './'      !  root directory for the runoff data location
   !___________!_________________________!___________________!___________!_____________!________!___________!__________________!__________!_______________!
   !           !  file name              ! frequency (hours) ! variable  ! time interp.!  clim  ! 'yearly'/ ! weights filename ! rotation ! land/sea mask !
   !           !                         !  (if <0  months)  !   name    !   (logical) !  (T/F) ! 'monthly' !                  ! pairing  !    filename   !
   sn_rnf      = 'eORCA_R025_runoff_v1.1', -1.   , 'sornficb',  .true.   , .true. , 'yearly'  , ''       , ''       , ''
   sn_cnf      = 'eORCA_R025_runoff_v1.1',  0.   , 'socoefr' ,  .false.  , .true. , 'yearly'  , ''       , ''       , ''
   sn_s_rnf    = 'runoffs'               , 24.   , 'rosaline',  .true.   , .true. , 'yearly'  , ''       , ''       , ''
   sn_t_rnf    = 'runoffs'               , 24.   , 'rotemper',  .true.   , .true. , 'yearly'  , ''       , ''       , ''
   sn_dep_rnf  = 'runoffs'               ,  0.   , 'rodepth' ,  .false.  , .true. , 'yearly'  , ''       , ''       , ''
/
!-----------------------------------------------------------------------
&namsbc_apr    !   Atmospheric pressure used as ocean forcing           (ln_apr_dyn =T)
!-----------------------------------------------------------------------
   rn_pref     = 101000.   !  reference atmospheric pressure   [N/m2]/
   ln_ref_apr  = .false.   !  ref. pressure: global mean Patm (T) or a constant (F)
   ln_apr_obc  = .false.   !  inverse barometer added to OBC ssh data
   cn_dir = './FATM/'        !  root directory for the Patm data location
   !___________!_________________________!___________________!___________!_____________!________!___________!__________________!______$
   !           !  file name              ! frequency (hours) ! variable  ! time interp.!  clim  ! 'yearly'/ ! weights filename ! rotat$
   !           !                         !  (if <0  months)  !   name    !   (logical) !  (T/F) ! 'monthly' !                  ! pairi$
   sn_apr  =         'ERA5_msl',      1.,  'msl'    ,    .true.   , .false. , 'yearly' , 'weight_bilinear_ERA5_Arctic-box_1440x264-NANUK4.nc' , ''       , ''
/
!-----------------------------------------------------------------------
&namisf       !  Top boundary layer (ISF)                               (default: OFF)
!-----------------------------------------------------------------------
/
!-----------------------------------------------------------------------
&namsbc_wave   ! External fields from wave model                        (ln_wave=T)
!-----------------------------------------------------------------------
/
!-----------------------------------------------------------------------
&namberg       !   iceberg parameters                                   (default: OFF)
!-----------------------------------------------------------------------
   ln_icebergs = .false.      ! activate iceberg floats (force =F with "key_agrif")
/
!-----------------------------------------------------------------------
&namsbc_fwb    !   freshwater-budget adjustment                         (nn_fwb > 0)
!-----------------------------------------------------------------------
/

!!======================================================================
!!               ***  Lateral boundary condition  ***                 !!
!!                                                                    !!
!!   namlbc        lateral momentum boundary condition                  (default: NO selection)
!!   namagrif      agrif nested grid   (read by child model only)       ("key_agrif")
!!   nam_tide      Tidal forcing                                        (default: OFF)
!!   nambdy        Unstructured open boundaries                         (default: OFF)
!!   nambdy_dta    Unstructured open boundaries - external data         (see  nambdy)
!!   nambdy_tide   tidal forcing at open boundaries                     (default: OFF)
!!======================================================================
!
!-----------------------------------------------------------------------
&namlbc        !   lateral momentum boundary condition                  (default: NO selection)
!-----------------------------------------------------------------------
   rn_shlat    =    2.     !  no slip #lolo very important for BBM to match that of sea-ice (rn_ishlat)
/
!-----------------------------------------------------------------------
&nam_tide      !   tide parameters                                      (default: OFF)
!-----------------------------------------------------------------------
/
!-----------------------------------------------------------------------
&nambdy        !  unstructured open boundaries                          (default: OFF)
!-----------------------------------------------------------------------
   ln_bdy         = .true.    !  Use unstructured open boundaries
   nb_bdy         = 2         !  number of open boundary sets
   !
   ln_coords_file = .false.,.false.   !  =T : read bdy coordinates from file
      cn_coords_file = 'none','none'
   !
   ln_mask_file   = .false.   !  =T : read mask from file
      cn_mask_file   = 'none'
   !
   cn_dyn2d    = 'flather','flather'
   nn_dyn2d_dta   =  1,1    !  = 0, bdy data are equal to the initial state
   !                          !  = 1, bdy data are read in 'bdydata   .nc' files
   !                          !  = 2, use tidal harmonic forcing data from files
   !                          !  = 3, use external data AND tidal harmonic forcing
   cn_dyn3d      =  'frs','frs'
   nn_dyn3d_dta  =  1,1     !  = 0, bdy data are equal to the initial state
   !                          !  = 1, bdy data are read in 'bdydata   .nc' files
   cn_tra        =  'frs','frs'
   nn_tra_dta    =  1,1     !  = 0, bdy data are equal to the initial state
   !                          !  = 1, bdy data are read in 'bdydata   .nc' files
   cn_ice        =  'none','none'
   nn_ice_dta    =  0,0         !  = 0, bdy data are equal to the initial state
   !
   ln_tra_dmp    =.false.,.false.
   ln_dyn3d_dmp  =.false.,.false.
   rn_time_dmp     =  1.,1.   !  Damping time scale in days
   rn_time_dmp_out = 1.,1.    !  Outflow damping time scale
   !                          !  = 1, bdy data are read in 'bdydata   .nc' files
   !                          !  = 1, bdy data are read in 'bdydata   .nc' files
   nn_rimwidth   =  9,9       !  width of the relaxation zone
   ln_vol        = .false.    !  total volume correction (see nn_volctl parameter)
   nn_volctl     =  1         !  = 0, the total water flux across open boundaries is zero
/
!-----------------------------------------------------------------------
&nambdy_index  !  structured open boundaries definition
!-----------------------------------------------------------------------
   ctypebdy ='S'      !! S1        ! Open boundary type (W,E,S or N)
   nbdyind  = 2                    ! indice of velocity row or column
   nbdybeg  = 66                   ! indice of segment start
   nbdyend  = 332                  ! indice of segment end
/
!-----------------------------------------------------------------------
&nambdy_index  !  structured open boundaries definition
!-----------------------------------------------------------------------
   ctypebdy ='N'      !! N1        ! Open boundary type (W,E,S or N)
   nbdyind  = 564                  ! indice of velocity row or column
   nbdybeg  = 184                  ! indice of segment start
   nbdyend  = 241                  ! indice of segment end
/
!-----------------------------------------------------------------------
&nambdy_dta    ! S1 ! open boundaries - external data                       (see nam_bdy)
!-----------------------------------------------------------------------
   ln_zinterp  = .false.
   ln_full_vel = .true.
   cn_dir      = './BDY/'
   bn_ssh = 'sossheig_GLORYS2V4-BDY_t_S1_NANUK4_L31', -1., 'sossheig',    .true.   , .false.,  'yearly'  ,    ''            ,   ''     ,     ''
   bn_u2d = 'none'                          ,         24.    , 'vobtcrtx',    .true.   , .false.,  'yearly'  ,    ''            ,   ''     ,     ''
   bn_v2d = 'none'                          ,         24.    , 'vobtcrty',    .true.   , .false.,  'yearly'  ,    ''            ,   ''     ,     ''
   bn_u3d = 'vozocrtx_GLORYS2V4-BDY_u_S1_NANUK4_L31', -1., 'vozocrtx',    .true.   , .false.,  'yearly'  ,    ''            ,   ''     ,     ''
   bn_v3d = 'vomecrty_GLORYS2V4-BDY_v_S1_NANUK4_L31', -1., 'vomecrty',    .true.   , .false.,  'yearly'  ,    ''            ,   ''     ,     ''
   bn_tem = 'votemper_GLORYS2V4-BDY_t_S1_NANUK4_L31', -1., 'votemper',    .true.   , .false.,  'yearly'  ,    ''            ,   ''     ,     ''
   bn_sal = 'vosaline_GLORYS2V4-BDY_t_S1_NANUK4_L31', -1., 'vosaline',    .true.   , .false.,  'yearly'  ,    ''            ,   ''     ,     ''
/
!-----------------------------------------------------------------------
&nambdy_dta    ! N1 ! open boundaries - external data                       (see nam_bdy)
!-----------------------------------------------------------------------
   ln_zinterp  = .false.
   ln_full_vel = .true.
   cn_dir      = './BDY/'
   bn_ssh = 'sossheig_GLORYS2V4-BDY_t_N1_NANUK4_L31', -1., 'sossheig',    .true.   , .false.,  'yearly'  ,    ''            ,   ''     ,     ''
   bn_u2d = 'none'                          ,         24.    , 'vobtcrtx',    .true.   , .false.,  'yearly'  ,    ''            ,   ''     ,     ''
   bn_v2d = 'none'                          ,         24.    , 'vobtcrty',    .true.   , .false.,  'yearly'  ,    ''            ,   ''     ,     ''
   bn_u3d = 'vozocrtx_GLORYS2V4-BDY_u_N1_NANUK4_L31', -1., 'vozocrtx',    .true.   , .false.,  'yearly'  ,    ''            ,   ''     ,     ''
   bn_v3d = 'vomecrty_GLORYS2V4-BDY_v_N1_NANUK4_L31', -1., 'vomecrty',    .true.   , .false.,  'yearly'  ,    ''            ,   ''     ,     ''
   bn_tem = 'votemper_GLORYS2V4-BDY_t_N1_NANUK4_L31', -1., 'votemper',    .true.   , .false.,  'yearly'  ,    ''            ,   ''     ,     ''
   bn_sal = 'vosaline_GLORYS2V4-BDY_t_N1_NANUK4_L31', -1., 'vosaline',    .true.   , .false.,  'yearly'  ,    ''            ,   ''     ,     ''
/
!-----------------------------------------------------------------------
&nambdy_tide   !  tidal forcing at open boundaries                      (default: OFF)
!-----------------------------------------------------------------------
/

!!======================================================================
!!                ***  Top/Bottom boundary condition  ***             !!
!!                                                                    !!
!!   namdrg        top/bottom drag coefficient                          (default: NO selection)
!!   namdrg_top    top    friction                                      (ln_drg_OFF=F & ln_isfcav=T)